LTspice 24.0.12 for Windows
Circuit: * \\Mac\UTM Share\EmagsProj.asc
Start Time: Sat Apr 11 15:50:23 2026
solver = Normal
Maximum thread count: 4
tnom = 27
temp = 27
method = modified trap
WARNING: Less than two connections to node vo2.  This node is used by l12.
.OP point found by inspection.
Total elapsed time: 2.660 seconds.

