LTspice 24.0.12 for Windows
Circuit: * C:\Users\samow\Documents\D.I.Wireless\EmagsProj.asc
Start Time: Tue Apr 21 12:40:31 2026
solver = Normal
Maximum thread count: 16
tnom = 27
temp = 27
method = modified trap
WARNING: Node NC_04 is floating.
WARNING: Node NC_05 is floating.

WARNING: Less than two connections to node nc_01.  This node is used by l7.
WARNING: Less than two connections to node nc_02.  This node is used by l8.
WARNING: Less than two connections to node nc_03.  This node is used by r5.
WARNING: Less than two connections to node nc_04.  This node is used by r5.
WARNING: Less than two connections to node n010.  This node is used by r6.
WARNING: Less than two connections to node nc_05.  This node is used by r6.
Direct Newton iteration for .op point succeeded.
Total elapsed time: 3.449 seconds.

